/batch
/config,noeldb,1     ! force off writing results to database
*get,_wallstrt,active,,time,wall
! ANSYS input file written by Workbench version 2020 R1
! File used for geometry attach: C:\Users\Ashiqrahman\AppData\Local\Temp\WB_LAPTOP-POS7A93D_Ashiqrahman_1508_2\unsaved_project_files\dp0\SYS\DM\SYS.scdoc
/title,unsaved_project--Static Structural (A5)
*DIM,_wb_ProjectScratch_dir,string,248
_wb_ProjectScratch_dir(1) = 'C:\Users\Ashiqrahman\AppData\Local\Temp\WB_LAPTOP-POS7A93D_Ashiqrahman_1508_2\_ProjectScratch\Scr47FF\'
*DIM,_wb_SolverFiles_dir,string,248
_wb_SolverFiles_dir(1) = 'C:\Users\Ashiqrahman\AppData\Local\Temp\WB_LAPTOP-POS7A93D_Ashiqrahman_1508_2\unsaved_project_files\dp0\SYS\MECH\'
*DIM,_wb_userfiles_dir,string,248
_wb_userfiles_dir(1) = 'C:\Users\Ashiqrahman\AppData\Local\Temp\WB_LAPTOP-POS7A93D_Ashiqrahman_1508_2\unsaved_project_files\user_files\'
/com,--- Data in consistent NMM units. See Solving Units in the help system for more information.
/units,MPA
/nopr
/wb,file,start              !  signify a WB generated input file
/prep7
! Turn off shape checking because checks already performed inside WB mesher.
! See help system for more information.
SHPP,OFF,,NOWARN
/nolist
etcon,set             ! allow ANSYS to choose best KEYOP's for 180x elements
/com,*********** Nodes for the whole assembly ***********
nblock,3,,17090
(1i9,3e20.9e3)
        1     4.000000000E+00    -1.499466572E+02     1.424000000E+03
        2     4.000000000E+00    -1.499466572E+02     1.173925913E+03
        3     4.000000000E+00    -1.499466572E+02     1.340641971E+03
        4     4.000000000E+00    -1.499466572E+02     1.257283942E+03
        5     4.000000000E+00    -3.300000000E+02     1.424000000E+03
        6     4.000000000E+00    -2.399733286E+02     1.424000000E+03
        7     4.000000000E+00    -2.849866643E+02     1.361481478E+03
        8     4.000000000E+00    -2.368404852E+02     1.294611785E+03
        9     4.000000000E+00    -1.875498117E+02     1.226152516E+03
       10    -4.000000000E+00    -1.499466572E+02     1.173925913E+03
       11    -4.000000000E+00    -3.300000000E+02     1.424000000E+03
       12    -4.000000000E+00    -1.930591077E+02     1.233804316E+03
       13    -4.000000000E+00    -2.399733286E+02     1.298962956E+03
       14    -4.000000000E+00    -2.849866643E+02     1.361481478E+03
       15    -4.000000000E+00    -1.499466572E+02     1.424000000E+03
       16    -4.000000000E+00    -1.499466572E+02     1.263716641E+03
       17    -4.000000000E+00    -1.499466572E+02     1.352964239E+03
       18    -4.000000000E+00    -2.399733286E+02     1.424000000E+03
       19    -1.499466572E+02    -4.000000000E+00     1.424000000E+03
       20    -1.499466572E+02    -4.000000000E+00     1.173925913E+03
! ... 15518 like lines cut
/wb,elem,start            !  set before creation of elements
/com,*********** Elements for Body 1 "SYS\Solid1" ***********
et,1,187
eblock,19,solid,,7776
(19i9)
        1        1        1        1        0        0        0        0       10        0        1      713     1860     1862     2597     7679    13021     7681     7684
    13025    13034
        1        1        1        1        0        0        0        0       10        0        2     1860     2597     1861     2520    13025    13029    13020    13022
    15374    13027
        1        1        1        1        0        0        0        0       10        0        3      713     1861     1860     2597     7680    13020     7679     7684
    13029    13025
        1        1        1        1        0        0        0        0       10        0        4      716     1861     2597     2511     7701    13029     7705     7703
    13026    15334
        1        1        1        1        0        0        0        0       10        0        5      713      716     1861     2597     7676     7701     7680     7684
     7705    13029
        1        1        1        1        0        0        0        0       10        0        6     1861     2597     2511     2520    13029    15334    13026    13027
    15374    15329
        1        1        1        1        0        0        0        0       10        0        7     2511     2597     2567     2595    15334    15511    15332    15333
    15534    15510
        1        1        1        1        0        0        0        0       10        0        8      716     2511     2597     2567     7703    15334     7705     7704
    15332    15511
        1        1        1        1        0        0        0        0       10        0        9     2520     2590     2597     2595    15372    15532    15374    15373
    15530    15534
        1        1        1        1        0        0        0        0       10        0       10      111     2597     1860     2520     3721    13025     3713     3717
    15374    13022
! ... 15533 like lines cut
!Material Id = {7A4CD1BD-2792-4687-81A7-A796F7DB9B45}
/wb,elem,end               !  done creating elements
/com,*********** Send User Defined Coordinate System(s) ***********
csys,0
toffst,273.15,  ! Temperature offset from absolute zero
/com,*********** Set Reference Temperature ***********
tref,22.
/wb,mat,start              !  starting to send materials
/com,*********** Send Materials ***********
Temperature = 'TEMP' ! Temperature
MP,DENS,1,7.85e-09,	! tonne mm^-3
MP,ALPX,1,1.2e-05,	! C^-1
MP,C,1,434000000,	! mm^2 s^-2 C^-1
MP,KXX,1,60.5,	! tonne mm s^-3 C^-1
MP,RSVX,1,0.00017,	! ohm mm
MP,EX,1,200000,	! tonne s^-2 mm^-1
MP,NUXY,1,0.3,
MP,MURX,1,10000,

/wb,mat,end                !  done sending materials
!************************* Model Summary ********************
!SYS\Solid1,	Structural Steel,	matid,	1
!************************* End Model Summary ********************
! get the diagonal of the bounding box. Needed later for other things
*get,_xmin,node,,mnloc,x
*get,_ymin,node,,mnloc,y
*get,_zmin,node,,mnloc,z
*get,_xmax,node,,mxloc,x
*get,_ymax,node,,mxloc,y
*get,_zmax,node,,mxloc,z
_ASMDIAG=(_xmax-_xmin)*(_xmax-_xmin)+(_ymax-_ymin)*(_ymax-_ymin)+(_zmax-_zmin)*(_zmax-_zmin)
_ASMDIAG=SQRT(_ASMDIAG)
/wb,contact,start          !  starting to send contact
/wb,contact,end            !  done creating contacts
/golist
/wb,load,start             !  starting to send loads
/com,*********** Fixed Supports ***********
CMBLOCK,_FIXEDSU,NODE,       94
(8i10)
       529       530       531       532       533       534       541       542
       543       544       545       546       553       554       555       556
       557       558       565       566       567       568       569       570
       577       578       579       580       581       582       589       590
       591       592       593       594      2436      6660      6661      6665
      6666      6667      6670      6671      6674      6678      6691      6692
      6698      6699      6700      6704      6705      6708      6711      6728
      6729      6733      6734      6737      6738      6741      6743      6746
      6748      6751      6753      6762      6763      6767      6768      6769
      6770      6773      6776      6780      6793      6794      6800      6801
      6802      6806      6807      6810      6814      6829      6830      6834
      6835      6836      6837      6840      6843      6846
cmsel,s,_FIXEDSU
d,all,all
nsel,all
/com,*********** Define Force Using Surface Effect Elements ***********
local,12,0,0.,0.,0.,0.,0.,0.
csys,0
et,2,154
eblock,10,,,32
(15i9)
    12765        2        2        2       12      136      139     1944     1944     3941     4024     1944     3955
    12766        2        2        2       12      131      128     1943     1943     3796     3809     1943     3869
    12767        2        2        2       12      132      129     1945     1945     3823     3833     1945     3880
    12768        2        2        2       12      137      140     1946     1946     3962     4058     1946     3980
    12769        2        2        2       12      133      130     1947     1947     3840     3847     1947     3890
    12770        2        2        2       12      138      141     1948     1948     3989     4084     1948     3998
    12771        2        2        2       12      128      132     1945     1945     3797     3880     1945     3811
    12772        2        2        2       12      130      134     1947     1947     3841     3911     1947     3847
    12773        2        2        2       12      140      136     1944     1944     3942     3955     1944     4057
    12774        2        2        2       12      142      138     1948     1948     3990     3998     1948     4112
    12775        2        2        2       12      134      127     1949     1949     3780     3782     1949     3912
    12776        2        2        2       12      135      142     1950     1950     3918     4113     1950     3932
    12777        2        2        2       12      129      133     1945     1945     3824     3889     1945     3833
    12778        2        2        2       12      141      137     1946     1946     3963     3980     1946     4083
    12779        2        2        2       12      127      131     1949     1949     3779     3870     1949     3782
    12780        2        2        2       12      139      135     1950     1950     3917     3932     1950     4025
    12781        2        2        2       12      131     1943     1949     1949     3869    13269     1949     3870
    12782        2        2        2       12     1943      128     1944     1944     3809     3810     1944    13268
    12783        2        2        2       12     1944      139     1950     1950     4024     4025     1950    13273
    12784        2        2        2       12     1946      140      128      128     4058     3798      128     3812
! ... 13 like lines cut
esel,s,type,,2
keyop,2,2,1                ! Apply load in local coordinate system
keyop,2,7,1                ! Use original area so load is constant in large deformation
keyop,2,11,2               ! Use real and not project area
esel,all
/gst,on,on
fini
*get,_numnode,node,0,count
*get,_numelem,elem,0,count
*get, _MAXELEMNUM, elem, 0, NUM, MAX
*get, _MAXNODENUM, node, 0, NUM, MAX
*get, _MAXELEMTYPE, etyp, 0, NUM, MAX
*get, _MAXREALCONST, real, 0, NUM, MAX
/go
/wb,load,end               !  done creating loads
/com,--- Number of total nodes = %_numnode%
/com,--- Number of contact elements = 32
/com,--- Number of spring elements = 0
/com,--- Number of bearing elements = 0
/com,--- Number of solid elements = 7776
/com,--- Number of condensed parts = 0
/com,--- Number of total elements = %_numelem%
*get,_wallbsol,active,,time,wall
/com,****************************************************************************
/com,*************************    SOLUTION       ********************************
/com,****************************************************************************
/solu
antype,0                   ! static analysis
_thickRatio=  0     ! Ratio of thick parts in the model
eqsl,sparse,,,,,1
cntr,print,1               ! print out contact info and also make no initial contact an error
dmpoption,emat,no             ! Don't combine emat file for DANSYS
dmpoption,esav,no             ! Don't combine esav file for DANSYS
nldiag,cont,iter           ! print out contact info each equilibrium iteration
rescontrol,,none                 ! Do not keep any restart files
/com,****************************************************
/com,******************* SOLVE FOR LS 1 OF 1 ****************
esel,s,type,,2
nsle
sfe,all,1,pres,1,0.
sfe,all,2,pres,1,0.
sfe,all,3,pres,1,3.65069544203224e-002
nsel,all
esel,all
acel,0.,0.,-9806.65
/nopr
/gopr
nsub,1,1,1
time,1.
outres,erase
outres,all,none
outres,nsol,all,
outres,rsol,all
outres,eangl,all
outres,etmp,all
outres,veng,all
outres,strs,all,
outres,epel,all,
outres,eppl,all,
outres,cont,all,
! *********** WB SOLVE COMMAND ***********
! check interactive state
*get,ANSINTER_,active,,int
*if,ANSINTER_,ne,0,then
/eof
*endif
solve
/com *************** Write FE CONNECTORS ********* 
CEWRITE,file,ce,,INTE
/com,****************************************************
/com,*************** FINISHED SOLVE FOR LS 1 *************
*get,_wallasol,active,,time,wall
/nopr
*get,_numnode,node,0,count
*get,_numelem,elem,0,count
*get, _MAXELEMNUM, elem, 0, NUM, MAX
*get, _MAXNODENUM, node, 0, NUM, MAX,,,INTERNAL
*get, _MAXELEMTYPE, etyp, 0, NUM, MAX
*get, _MAXREALCONST, real, 0, NUM, MAX
/gopr
/post1
xmlo,ENCODING,ISO-8859-1
xmlo,parm
/xml,parm,xml
fini
/gopr
*get,_walldone,active,,time,wall
_preptime=(_wallbsol-_wallstrt)*3600
_solvtime=(_wallasol-_wallbsol)*3600
_posttime=(_walldone-_wallasol)*3600
_totaltim=(_walldone-_wallstrt)*3600
*get,_dlbratio,active,0,solu,dlbr
*get,_combtime,active,0,solu,comb
/com,--- Number of total nodes = %_numnode%
/com,--- Number of total elements = %_numelem%
/com,--- Element load balance ratio = %_dlbratio%
/com,--- Time to combine distributed files = %_combtime%
/wb,file,end               ! done with WB generated input
